casefile/input/WECC240_v03_Mod_NewMVA_month_4_day_6_hour_1.raw
@!IC, SBASE,REV,XFRRAT,NXFRAT,BASFRQ
0,   100.00, 34,     0,     1, 60.00     / PSS(R)E-34.4    WED, APR 22 2020  11:36
WECC 240 SYSTEM, V0.2,  MODIFIED BY NREL, INTERNAL USE ONLY
CONTACT: HAOYU.YUAN@NREL.GOV
GENERAL, THRSHZ=0.0001, PQBRAK=0.7, BLOWUP=5.0
GAUSS, ITMX=100, ACCP=1.6, ACCQ=1.6, ACCM=1.0, TOL=0.0001
NEWTON, ITMXN=300, ACCN=1.0, TOLN=0.1, VCTOLQ=0.1, VCTOLV=0.00001, DVLIM=0.99, NDVFCT=0.99
ADJUST, ADJTHR=0.005, ACCTAP=1.0, TAPLIM=0.05, SWVBND=100.0, MXTPSS=99, MXSWIM=10
TYSL, ITMXTY=20, ACCTY=1.0, TOLTY=0.00001
SOLVER, FNSL, ACTAPS=0, AREAIN=0, PHSHFT=0, DCTAPS=1, SWSHNT=1, FLATST=2, VARLIM=0, NONDIV=0
RATING, 1, "RATE1 ", "RATING SET 1                    "
RATING, 2, "RATE2 ", "RATING SET 2                    "
RATING, 3, "RATE3 ", "RATING SET 3                    "
RATING, 4, "RATE4 ", "RATING SET 4                    "
RATING, 5, "RATE5 ", "RATING SET 5                    "
RATING, 6, "RATE6 ", "RATING SET 6                    "
RATING, 7, "RATE7 ", "RATING SET 7                    "
RATING, 8, "RATE8 ", "RATING SET 8                    "
RATING, 9, "RATE9 ", "RATING SET 9                    "
RATING,10, "RATE10", "RATING SET 10                   "
RATING,11, "RATE11", "RATING SET 11                   "
RATING,12, "RATE12", "RATING SET 12                   "
0 / END OF SYSTEM-WIDE DATA, BEGIN BUS DATA
@!   I,'NAME        ', BASKV, IDE,AREA,ZONE,OWNER, VM,        VA,    NVHI,   NVLO,   EVHI,   EVLO
  1001,'FOURCORN    ', 500.0000,1,   1,   3,   1,1.14498,  15.0680,1.10000,0.90000,1.10000,0.90000
  1002,'FOURCORN    ', 345.0000,1,   1,   3,   1,1.16142,  18.2878,1.10000,0.90000,1.10000,0.90000
  1003,'FOURCORN    ', 230.0000,1,   1,  10,   1,1.16772,  16.8948,1.10000,0.90000,1.10000,0.90000
  1004,'SAN JUAN    ', 345.0000,1,   1,  10,   1,1.21305,  23.5114,1.10000,0.90000,1.10000,0.90000
  1032,'FCNGN4CC    ',  20.0000,2,   1,  10,   1,1.16219,  18.3993,1.10000,0.90000,1.10000,0.90000
  1034,'SJUAN G4    ',  20.0000,2,   1,  10,   1,1.21734,  23.9886,1.10000,0.90000,1.10000,0.90000
  1101,'CORONADO    ', 500.0000,1,   1,   3,   1,0.96248,   7.8671,1.10000,0.90000,1.10000,0.90000
  1102,'CHOLLA      ', 345.0000,1,   1,   3,   1,1.05444,  13.9004,1.10000,0.90000,1.10000,0.90000
  1131,'CORONADO    ',  20.0000,2,   1,   3,   1,0.96396,   8.1861,1.10000,0.90000,1.10000,0.90000
  1201,'MOENKOPI    ', 500.0000,1,   1,   3,   1,1.06599,  -3.6250,1.10000,0.90000,1.10000,0.90000
  1202,'NAVAJO      ', 500.0000,1,   1,   3,   1,1.00819,  -0.4955,1.10000,0.90000,1.10000,0.90000
  1232,'NAVAJO 2    ',  20.0000,3,   1,   3,   1,1.00000,   0.0000,1.10000,0.90000,1.10000,0.90000
  1301,'MEAD        ', 500.0000,1,   1,   3,   1,1.12234, -10.4656,1.10000,0.90000,1.10000,0.90000
  1302,'H ALLEN     ', 500.0000,1,   1,   9,   1,1.03397,  -5.3502,1.10000,0.90000,1.10000,0.90000
  1303,'H ALLEN     ', 345.0000,1,   1,   9,   1,1.00500,  -4.6780,1.10000,0.90000,1.10000,0.90000
  1331,'HOOVER      ',  20.0000,2,   1,   3,   1,1.12582, -10.2428,1.10000,0.90000,1.10000,0.90000
  1333,'H ALLEN     ',  20.0000,2,   1,   9,   1,1.00309,  -4.1112,1.10000,0.90000,1.10000,0.90000
  1401,'PALOVRDE    ', 500.0000,1,   1,   3,   1,0.78472,  -3.3543,1.10000,0.90000,1.10000,0.90000
  1402,'WESTWING    ', 500.0000,1,   1,   3,   1,0.90687,  -7.5455,1.10000,0.90000,1.10000,0.90000
  1403,'PARKER      ', 230.0000,1,   1,   3,   1,0.83480,  -5.3783,1.10000,0.90000,1.10000,0.90000
  1431,'PALOVRD2    ',  20.0000,2,   1,   3,   1,0.78616,  -2.1404,1.10000,0.90000,1.10000,0.90000
  2000,'MEXICO      ', 230.0000,1,   4,   7,   1,0.50584, -15.1715,1.10000,0.90000,1.10000,0.90000
  2030,'MEXICO      ',  20.0000,2,   4,   7,   1,0.50500, -14.7636,1.10000,0.90000,1.10000,0.90000
  2100,'IMPERIAL    ', 230.0000,1,   2,   2,   1,1.07157, -11.5820,1.10000,0.90000,1.10000,0.90000
  2130,'IMPERIAL    ',  20.0000,2,   2,   2,   1,1.07320, -11.5037,1.10000,0.90000,1.10000,0.90000
  2201,'MIGUEL      ', 500.0000,1,   2,   2,   1,1.02922, -11.0620,1.10000,0.90000,1.10000,0.90000
  2202,'MIGUEL      ', 230.0000,1,   2,   2,   1,1.03367, -10.5771,1.10000,0.90000,1.10000,0.90000
  2203,'MISSION     ', 230.0000,1,   2,   2,   1,1.10845,  -7.5600,1.10000,0.90000,1.10000,0.90000
  2233,'MISSION     ',  20.0000,2,   2,   2,   1,1.10845,  -7.5600,1.10000,0.90000,1.10000,0.90000
  2301,'IMPRLVLY    ', 500.0000,1,   2,   2,   1,0.91602, -12.5857,1.10000,0.90000,1.10000,0.90000
  2302,'IMPRLVLY    ', 230.0000,1,   2,   2,   1,0.90469, -12.4218,1.10000,0.90000,1.10000,0.90000
  2332,'IMPRLVLY    ',  20.0000,2,   2,   2,   1,0.90469, -12.4218,1.10000,0.90000,1.10000,0.90000
  2400,'DEVERS      ', 500.0000,1,   2,   2,   1,1.09224, -12.1742,1.10000,0.90000,1.10000,0.90000
  2401,'LUGO        ', 500.0000,1,   2,   2,   1,1.20812,  -7.8200,1.10000,0.90000,1.10000,0.90000
  2402,'MIRALOMA    ', 500.0000,1,   2,   2,   1,1.23956,  -4.9068,1.10000,0.90000,1.10000,0.90000
  2403,'VALLEY      ', 500.0000,1,   2,   2,   1,1.17205,  -9.6134,1.10000,0.90000,1.10000,0.90000
  2404,'VINCENT     ', 500.0000,1,   2,   2,   1,1.00368, -13.2248,1.10000,0.90000,1.10000,0.90000
  2405,'SYLMAR S    ', 230.0000,1,   2,   2,   1,1.30062,   0.9510,1.10000,0.90000,1.10000,0.90000
  2406,'EAGLROCK    ', 230.0000,1,   2,   2,   1,1.38404,   1.8546,1.10000,0.90000,1.10000,0.90000
  2407,'LITEHIPE    ', 230.0000,1,   2,   2,   1,1.50578,  -0.2228,1.10000,0.90000,1.10000,0.90000
  2408,'MESA CAL    ', 230.0000,1,   2,   2,   1,1.50462,  -1.3368,1.10000,0.90000,1.10000,0.90000
  2409,'MIRALOMA    ', 230.0000,1,   2,   2,   1,1.26929,  -3.0939,1.10000,0.90000,1.10000,0.90000
  2410,'PARDEE      ', 230.0000,1,   2,   2,   1,1.26530,   2.4702,1.10000,0.90000,1.10000,0.90000
  2411,'VINCENT     ', 230.0000,1,   2,   2,   1,1.10035,  -6.3872,1.10000,0.90000,1.10000,0.90000
  2431,'LUGO        ',  20.0000,2,   2,   2,   1,1.20812,  -7.8200,1.10000,0.90000,1.10000,0.90000
  2434,'VINCENT     ',  20.0000,2,   2,   2,   1,1.10035,  -6.3872,1.10000,0.90000,1.10000,0.90000
  2438,'MESA CAL    ',  20.0000,2,   2,   2,   1,1.50993,  -1.3832,1.10000,0.90000,1.10000,0.90000
  2439,'MIRALOMA    ',  20.0000,2,   2,   2,   1,1.26929,  -3.0939,1.10000,0.90000,1.10000,0.90000
  2501,'SERRANO     ', 500.0000,1,   2,   2,   1,1.23637,  -5.1949,1.10000,0.90000,1.10000,0.90000
  2502,'SERRANO     ', 230.0000,1,   2,   2,   1,1.24664,  -4.2775,1.10000,0.90000,1.10000,0.90000
  2503,'S.ONOFRE    ', 230.0000,1,   2,   2,   1,1.17179,  -4.8237,1.10000,0.90000,1.10000,0.90000
  2533,'S.ONOFRE    ',  20.0000,2,   2,   2,   1,1.17179,  -4.8237,1.10000,0.90000,1.10000,0.90000
  2600,'ADELANTO    ', 500.0000,1,   2,   2,   1,1.25744,  -9.1713,1.10000,0.90000,1.10000,0.90000
  2601,'RINALDI     ', 500.0000,1,   2,   2,   1,1.29278,  -5.6810,1.10000,0.90000,1.10000,0.90000
  2602,'STA E       ', 500.0000,1,   2,   2,   1,1.30774,  -1.5078,1.10000,0.90000,1.10000,0.90000
  2603,'VICTORVL    ', 500.0000,1,   2,   2,   1,1.25097,  -9.3134,1.10000,0.90000,1.10000,0.90000
  2604,'INTERMT     ', 345.0000,1,   2,   2,   1,1.00883,  15.5930,1.10000,0.90000,1.10000,0.90000
  2605,'STA B1      ', 287.0000,1,   2,   2,   1,1.32338,   1.4753,1.10000,0.90000,1.10000,0.90000
  2606,'STA B2      ', 287.0000,1,   2,   2,   1,1.32338,   1.4753,1.10000,0.90000,1.10000,0.90000
  2607,'VICTORVL    ', 287.0000,1,   2,   2,   1,1.29449,  -5.6138,1.10000,0.90000,1.10000,0.90000
  2608,'CASTAIC     ', 230.0000,1,   2,   2,   1,1.30580,   0.5076,1.10000,0.90000,1.10000,0.90000
  2609,'GLENDAL     ', 230.0000,1,   2,   2,   1,1.31571,   2.6531,1.10000,0.90000,1.10000,0.90000
  2610,'HAYNES      ', 230.0000,1,   2,   2,   1,1.32166,   3.9369,1.10000,0.90000,1.10000,0.90000
  2611,'OLIVE       ', 230.0000,1,   2,   2,   1,1.30627,   0.7537,1.10000,0.90000,1.10000,0.90000
  2612,'RINALDI     ', 230.0000,1,   2,   2,   1,1.30604,   0.5978,1.10000,0.90000,1.10000,0.90000
  2613,'RIVER       ', 230.0000,1,   2,   2,   1,1.31997,   3.7401,1.10000,0.90000,1.10000,0.90000
  2614,'STA BLD     ', 230.0000,1,   2,   2,   1,1.32149,   3.5187,1.10000,0.90000,1.10000,0.90000
  2615,'STA E       ', 230.0000,1,   2,   2,   1,1.31275,   1.7757,1.10000,0.90000,1.10000,0.90000
  2616,'STA F       ', 230.0000,1,   2,   2,   1,1.32044,   3.6551,1.10000,0.90000,1.10000,0.90000
  2617,'STA G       ', 230.0000,1,   2,   2,   1,1.31742,   2.9904,1.10000,0.90000,1.10000,0.90000
  2618,'STA J       ', 230.0000,1,   2,   2,   1,1.30598,   1.4799,1.10000,0.90000,1.10000,0.90000
  2619,'SYLMARLA    ', 230.0000,1,   2,   2,   1,1.30342,   0.2693,1.10000,0.90000,1.10000,0.90000
  2620,'VALLEY      ', 230.0000,1,   2,   2,   1,1.30875,   1.3427,1.10000,0.90000,1.10000,0.90000
  2621,'STA B       ', 138.0000,1,   2,   2,   1,1.32227,   2.9373,1.10000,0.90000,1.10000,0.90000
  2630,'HAYNES3G    ',  20.0000,2,   2,   2,   1,1.32166,   3.9369,1.10000,0.90000,1.10000,0.90000
  2631,'OLIVE       ',  20.0000,2,   2,   2,   1,1.30627,   0.7537,1.10000,0.90000,1.10000,0.90000
  2634,'INTERM1G    ',  20.0000,2,   2,   2,   1,1.00562,  15.6841,1.10000,0.90000,1.10000,0.90000
  2637,'OWENS G     ',  20.0000,2,   2,   2,   1,1.30609,   0.5915,1.10000,0.90000,1.10000,0.90000
  2638,'CASTAI4G    ',  20.0000,2,   2,   2,   1,1.30569,   0.4754,1.10000,0.90000,1.10000,0.90000
  2901,'ELDORADO    ', 500.0000,1,   2,   2,   1,1.20583, -12.2795,1.10000,0.90000,1.10000,0.90000
  2902,'MOHAVE      ', 500.0000,1,   2,   2,   1,1.24422, -11.9565,1.10000,0.90000,1.10000,0.90000
  3101,'EMBRCDRD    ', 230.0000,1,   2,   2,   1,0.99923, -20.6616,1.10000,0.90000,1.10000,0.90000
  3102,'MARTIN      ', 230.0000,1,   2,   2,   1,0.99809, -20.0068,1.10000,0.90000,1.10000,0.90000
  3103,'SANMATEO    ', 230.0000,1,   2,   2,   1,0.99441, -18.3633,1.10000,0.90000,1.10000,0.90000
  3104,'MARTIN      ', 115.0000,1,   2,   2,   1,1.07576, -23.5043,1.10000,0.90000,1.10000,0.90000
  3105,'POTRERO     ', 115.0000,1,   2,   2,   1,1.14418, -24.5283,1.10000,0.90000,1.10000,0.90000
  3133,'SANMATEO    ',  20.0000,2,   2,   2,   1,0.99441, -18.3633,1.10000,0.90000,1.10000,0.90000
  3135,'POTRERO     ',  20.0000,2,   2,   2,   1,1.14492, -24.5103,1.10000,0.90000,1.10000,0.90000
  3201,'C.COSTA     ', 230.0000,1,   2,   2,   1,0.95355, -15.6111,1.10000,0.90000,1.10000,0.90000
  3202,'MORAGA      ', 230.0000,1,   2,   2,   1,0.97257, -15.8050,1.10000,0.90000,1.10000,0.90000
  3203,'NEWARK      ', 230.0000,1,   2,   2,   1,0.95803, -17.0580,1.10000,0.90000,1.10000,0.90000
  3204,'PITSBURG    ', 230.0000,1,   2,   2,   1,1.01429, -15.3997,1.10000,0.90000,1.10000,0.90000
  3205,'SOBRANTE    ', 230.0000,1,   2,   2,   1,0.99373, -14.1278,1.10000,0.90000,1.10000,0.90000
  3234,'PITSBURG    ',  20.0000,2,   2,   2,   1,1.01498, -15.0796,1.10000,0.90000,1.10000,0.90000
  3301,'METCALF     ', 500.0000,1,   2,   2,   1,0.93374, -19.0127,1.10000,0.90000,1.10000,0.90000
  3302,'JEFFERSN    ', 230.0000,1,   2,   2,   1,0.97512, -21.2569,1.10000,0.90000,1.10000,0.90000
  3303,'METCALF     ', 230.0000,1,   2,   2,   1,0.94928, -20.4963,1.10000,0.90000,1.10000,0.90000
  3304,'MONTAVIS    ', 230.0000,1,   2,   2,   1,0.96107, -21.1968,1.10000,0.90000,1.10000,0.90000
  3305,'RAVENSWD    ', 230.0000,1,   2,   2,   1,0.96895, -17.9863,1.10000,0.90000,1.10000,0.90000
  3333,'METCALF     ',  20.0000,2,   2,   2,   1,0.94928, -20.4963,1.10000,0.90000,1.10000,0.90000
  3401,'GREGG       ', 230.0000,1,   2,   2,   1,0.86844, -26.6064,1.10000,0.90000,1.10000,0.90000
  3402,'HELMS PP    ', 230.0000,1,   2,   2,   1,0.87035, -26.6195,1.10000,0.90000,1.10000,0.90000
  3403,'MC CALL     ', 230.0000,1,   2,   2,   1,0.84957, -25.1072,1.10000,0.90000,1.10000,0.90000
  3404,'PANOCHE     ', 230.0000,1,   2,   2,   1,0.86534, -26.0487,1.10000,0.90000,1.10000,0.90000
  3405,'WILSON      ', 230.0000,1,   2,   2,   1,0.87653, -26.0499,1.10000,0.90000,1.10000,0.90000
  3432,'HELMS PP    ',  20.0000,2,   2,   2,   1,0.87035, -26.6195,1.10000,0.90000,1.10000,0.90000
  3433,'MC CALL     ',  20.0000,2,   2,   2,   1,0.84957, -25.1072,1.10000,0.90000,1.10000,0.90000
  3501,'FULTON      ', 230.0000,1,   2,   2,   1,1.00000,   7.1207,1.10000,0.90000,1.10000,0.90000
  3531,'FULTON      ',  20.0000,2,   2,   2,   1,1.00197,   7.6706,1.10000,0.90000,1.10000,0.90000
  3601,'HUMBOLDT    ', 115.0000,1,   2,   2,   1,1.04830,   0.1515,1.10000,0.90000,1.10000,0.90000
  3631,'HUMBOLDT    ',  20.0000,2,   2,   2,   1,1.04821,   0.1755,1.10000,0.90000,1.10000,0.90000
  3701,'SUMMIT      ', 115.0000,1,   1,   9,   1,1.07856,  -4.4531,1.10000,0.90000,1.10000,0.90000
  3731,'SUMMIT      ',  20.0000,2,   1,   9,   1,1.07812,  -4.4271,1.10000,0.90000,1.10000,0.90000
  3801,'DIABLO      ', 500.0000,1,   2,   2,   1,0.01496, -33.6089,1.10000,0.90000,1.10000,0.90000
  3802,'GATES       ', 500.0000,1,   2,   2,   1,0.71771, -26.5703,1.10000,0.90000,1.10000,0.90000
  3803,'MIDWAY      ', 500.0000,1,   2,   2,   1,0.83311, -22.1129,1.10000,0.90000,1.10000,0.90000
  3804,'GATES       ', 230.0000,1,   2,   2,   1,0.82604, -25.6480,1.10000,0.90000,1.10000,0.90000
  3805,'MIDWAY      ', 230.0000,1,   2,   2,   1,0.83695, -19.9053,1.10000,0.90000,1.10000,0.90000
  3806,'MORROBAY    ', 230.0000,1,   2,   2,   1,0.83847, -21.4158,1.10000,0.90000,1.10000,0.90000
  3831,'DIABLO1     ',  20.0000,2,   2,   2,   1,0.00863, -33.1707,1.10000,0.90000,1.10000,0.90000
  3835,'MIDWAY      ',  20.0000,2,   2,   2,   1,0.83695, -19.9053,1.10000,0.90000,1.10000,0.90000
  3836,'MORROBAY    ',  20.0000,2,   2,   2,   1,0.83847, -21.4158,1.10000,0.90000,1.10000,0.90000
  3891,'GATES1      ', 500.0000,1,   2,   2,   1,0.98501, -11.0228,1.10000,0.90000,1.10000,0.90000
  3892,'MIDWAY1     ', 500.0000,1,   2,   2,   1,0.55205, -30.5157,1.10000,0.90000,1.10000,0.90000
  3893,'MIDWAY2     ', 500.0000,1,   2,   2,   1,1.18924,  -5.3243,1.10000,0.90000,1.10000,0.90000
  3894,'MIDWAY3     ', 500.0000,1,   2,   2,   1,0.54564, -30.5844,1.10000,0.90000,1.10000,0.90000
  3895,'MIDWAY4     ', 500.0000,1,   2,   2,   1,1.19143,  -5.3057,1.10000,0.90000,1.10000,0.90000
  3896,'MIDWAY5     ', 500.0000,1,   2,   2,   1,0.52955, -30.4922,1.10000,0.90000,1.10000,0.90000
  3897,'MIDWAY6     ', 500.0000,1,   2,   2,   1,1.18498,  -5.6230,1.10000,0.90000,1.10000,0.90000
  3901,'LOSBANOS    ', 500.0000,1,   2,   2,   1,0.87212, -26.1385,1.10000,0.90000,1.10000,0.90000
  3902,'MOSSLAND    ', 500.0000,1,   2,   2,   1,0.90655, -23.6619,1.10000,0.90000,1.10000,0.90000
  3903,'TESLA       ', 500.0000,1,   2,   2,   1,0.93749, -12.7429,1.10000,0.90000,1.10000,0.90000
  3904,'VACA-DIX    ', 500.0000,1,   2,   2,   1,0.94647, -11.1073,1.10000,0.90000,1.10000,0.90000
  3905,'TABLE MT    ', 500.0000,1,   2,   2,   1,0.98632,  -2.9936,1.10000,0.90000,1.10000,0.90000
  3906,'ROUND MT    ', 500.0000,1,   2,   2,   1,1.04296,   3.2362,1.10000,0.90000,1.10000,0.90000
  3907,'BELLOTA     ', 230.0000,1,   2,   2,   1,0.87734, -23.0299,1.10000,0.90000,1.10000,0.90000
  3908,'BRIGHTON    ', 230.0000,1,   2,   2,   1,0.92014, -18.6595,1.10000,0.90000,1.10000,0.90000
  3909,'COLGATE     ', 230.0000,1,   2,   2,   1,0.97767, -12.4451,1.10000,0.90000,1.10000,0.90000
  3910,'CORTINA     ', 230.0000,1,   2,   2,   1,0.99486, -12.8811,1.10000,0.90000,1.10000,0.90000
  3911,'COTWDPGE    ', 230.0000,1,   2,   2,   1,1.04563,  -0.2454,1.10000,0.90000,1.10000,0.90000
  3912,'GLENN       ', 230.0000,1,   2,   2,   1,1.01638,  -7.2512,1.10000,0.90000,1.10000,0.90000
  3913,'GOLDHILL    ', 230.0000,1,   2,   2,   1,0.92056, -14.6214,1.10000,0.90000,1.10000,0.90000
  3914,'IGNACIO     ', 230.0000,1,   2,   2,   1,0.98355,  -4.6296,1.10000,0.90000,1.10000,0.90000
  3915,'LAKEVILE    ', 230.0000,1,   2,   2,   1,0.97374,  -7.7589,1.10000,0.90000,1.10000,0.90000
  3916,'LOGAN CR    ', 230.0000,1,   2,   2,   1,1.00692,  -8.4450,1.10000,0.90000,1.10000,0.90000
  3917,'LOSBANOS    ', 230.0000,1,   2,   2,   1,0.87454, -25.8497,1.10000,0.90000,1.10000,0.90000
  3918,'MOSSLAND    ', 230.0000,1,   2,   2,   1,0.91939, -23.9906,1.10000,0.90000,1.10000,0.90000
  3919,'PALERMO     ', 230.0000,1,   2,   2,   1,0.98186, -11.0925,1.10000,0.90000,1.10000,0.90000
  3920,'RIO OSO     ', 230.0000,1,   2,   2,   1,0.96630, -12.4830,1.10000,0.90000,1.10000,0.90000
  3921,'ROUND MT    ', 230.0000,1,   2,   2,   1,1.07000,   7.3841,1.10000,0.90000,1.10000,0.90000
  3922,'TABLE MT    ', 230.0000,1,   2,   2,   1,0.98238,  -8.3323,1.10000,0.90000,1.10000,0.90000
  3923,'TESLA       ', 230.0000,2,   2,   2,   1,0.87378, -13.5762,1.10000,0.90000,1.10000,0.90000
  3924,'VACA-DIX    ', 230.0000,1,   2,   2,   1,0.96232, -13.6934,1.10000,0.90000,1.10000,0.90000
  3925,'COTWDPGE    ', 115.0000,1,   2,   2,   1,1.04801,  -0.0452,1.10000,0.90000,1.10000,0.90000
  3926,'RIO OSO     ', 115.0000,1,   2,   2,   1,1.01886,  -8.5797,1.10000,0.90000,1.10000,0.90000
  3931,'ROUND MT    ',  20.0000,2,   2,   2,   1,1.07063,   7.6882,1.10000,0.90000,1.10000,0.90000
  3932,'MOSSLAND    ',  20.0000,2,   2,   2,   1,0.90655, -23.6619,1.10000,0.90000,1.10000,0.90000
  3933,'TESLA       ',  20.0000,2,   2,   2,   1,0.85743, -13.0331,1.10000,0.90000,1.10000,0.90000
  4001,'MALIN       ', 500.0000,1,   3,  11,   1,1.07285,   6.6649,1.10000,0.90000,1.10000,0.90000
  4002,'SUMMER L    ', 500.0000,1,   3,  11,   1,1.10605,  13.8803,1.10000,0.90000,1.10000,0.90000
  4003,'BURNS       ', 500.0000,1,   3,  11,   1,1.12902,  22.2314,1.10000,0.90000,1.10000,0.90000
  4004,'GRIZZLY     ', 500.0000,1,   3,  11,   1,1.08965,  16.2589,1.10000,0.90000,1.10000,0.90000
  4005,'JOHN DAY    ', 500.0000,1,   3,  11,   1,1.08000,  25.5114,1.10000,0.90000,1.10000,0.90000
  4006,'BIG EDDY    ', 500.0000,1,   3,  11,   1,1.07916,  24.1319,1.10000,0.90000,1.10000,0.90000
  4007,'CELILOCA    ', 500.0000,1,   3,  11,   1,1.07916,  24.0906,1.10000,0.90000,1.10000,0.90000
  4008,'MALIN       ', 345.0000,1,   3,  11,   1,1.09283,   5.9375,1.10000,0.90000,1.10000,0.90000
  4009,'BIG EDDY    ', 230.0000,1,   3,  11,   1,1.08000,  23.7477,1.10000,0.90000,1.10000,0.90000
  4010,'CELILO      ', 230.0000,1,   3,  11,   1,1.07961,  23.4830,1.10000,0.90000,1.10000,0.90000
  4031,'MALIN       ',  20.0000,2,   3,  11,   1,1.07570,   6.8533,1.10000,0.90000,1.10000,0.90000
  4035,'JOHN DAY    ',  20.0000,2,   3,  11,   1,1.07293,  26.2736,1.10000,0.90000,1.10000,0.90000
  4039,'DALLES21    ',  20.0000,2,   3,  13,   1,1.07729,  24.2284,1.10000,0.90000,1.10000,0.90000
  4090,'MALIN1      ', 500.0000,1,   3,  11,   1,1.10182,  12.8426,1.10000,0.90000,1.10000,0.90000
  4091,'GRIZZLY1    ', 500.0000,1,   3,  11,   1,1.10040,  15.2472,1.10000,0.90000,1.10000,0.90000
  4092,'GRIZZLY2    ', 500.0000,1,   3,  11,   1,1.08744,   9.0326,1.10000,0.90000,1.10000,0.90000
  4093,'GRIZZLY3    ', 500.0000,1,   3,  11,   1,1.08849,   8.1042,1.10000,0.90000,1.10000,0.90000
  4094,'GRIZZLY4    ', 500.0000,1,   3,  11,   1,1.08784,  15.2641,1.10000,0.90000,1.10000,0.90000
  4095,'GRIZZLY5    ', 500.0000,1,   3,  11,   1,1.08691,   8.6260,1.10000,0.90000,1.10000,0.90000
  4096,'GRIZZLY6    ', 500.0000,1,   3,  11,   1,1.08808,   7.6458,1.10000,0.90000,1.10000,0.90000
  4097,'GRIZZLY7    ', 500.0000,1,   3,  11,   1,1.08729,  15.2102,1.10000,0.90000,1.10000,0.90000
  4101,'COULEE      ', 500.0000,1,   3,  13,   1,1.12800,  38.8987,1.10000,0.90000,1.10000,0.90000
  4102,'HANFORD     ', 500.0000,1,   3,  13,   1,1.09600,  32.0933,1.10000,0.90000,1.10000,0.90000
  4103,'BELL        ', 500.0000,1,   3,  13,   1,1.14563,  31.2078,1.10000,0.90000,1.10000,0.90000
  4104,'BELL        ', 230.0000,1,   3,  13,   1,1.12774,  25.1194,1.10000,0.90000,1.10000,0.90000
  4131,'COULEE      ',  20.0000,2,   3,  13,   1,1.12643,  40.0232,1.10000,0.90000,1.10000,0.90000
  4132,'HANFORD     ',  20.0000,2,   3,  13,   1,1.09137,  32.7001,1.10000,0.90000,1.10000,0.90000
  4201,'NORTH       ', 500.0000,1,   3,  13,   1,1.12000,  35.4588,1.10000,0.90000,1.10000,0.90000
  4202,'WCASCADE    ', 500.0000,1,   3,  13,   1,1.06964,  22.0341,1.10000,0.90000,1.10000,0.90000
  4203,'WILLAMET    ', 500.0000,1,   3,  13,   1,1.04864,  17.9766,1.10000,0.90000,1.10000,0.90000
  4204,'MERIDIAN    ', 500.0000,1,   3,  13,   1,1.07389,   7.8223,1.10000,0.90000,1.10000,0.90000
  4231,'NORTH G3    ',  20.0000,2,   3,  13,   1,1.12384,  35.9866,1.10000,0.90000,1.10000,0.90000
  4232,'WCASCADE    ',  20.0000,2,   3,  13,   1,1.07034,  22.0662,1.10000,0.90000,1.10000,0.90000
  5001,'CANADA      ', 500.0000,1,   3,   4,   1,1.05000,  59.3449,1.10000,0.90000,1.10000,0.90000
  5002,'CANALB      ', 500.0000,1,   3,   1,   1,1.05500,  69.2277,1.10000,0.90000,1.10000,0.90000
  5003,'CA230TO     ', 230.0000,1,   3,   1,   1,1.05429,  64.5564,1.10000,0.90000,1.10000,0.90000
  5004,'CA230       ', 230.0000,1,   3,   4,   1,1.06112,  44.1000,1.10000,0.90000,1.10000,0.90000
  5031,'CANAD G1    ',  20.0000,2,   3,   4,   1,1.04895,  60.7389,1.10000,0.90000,1.10000,0.90000
  5032,'CMAIN GM    ',  20.0000,2,   3,   1,   1,1.04725,  71.7048,1.10000,0.90000,1.10000,0.90000
  6101,'MIDPOINT    ', 500.0000,1,   3,   6,   1,1.07883,  32.4554,1.10000,0.90000,1.10000,0.90000
  6102,'MIDPOINT    ', 345.0000,1,   3,   6,   1,1.04556,  35.3220,1.10000,0.90000,1.10000,0.90000
  6103,'BORAH       ', 345.0000,1,   3,   6,   1,1.05423,  34.8495,1.10000,0.90000,1.10000,0.90000
...
0 / END OF BUS DATA, BEGIN LOAD DATA
@!   I,'ID',STAT,AREA,ZONE,      PL,        QL,        IP,        IQ,        YP,        YQ, OWNER,SCALE,INTRPT,  DGENP,     DGENQ, DGENF
  1002,'1 ',   1,   1,   3,    79.346,   206.973,     0.000,     0.000,     0.000,     0.000,   1,    1,  0,     0.000,     0.000,   0
  1003,'1 ',   1,   1,  10,   784.790,  -137.387,     0.000,     0.000,     0.000,     0.000,   1,    1,  0,     0.000,     0.000,   0
  1004,'1 ',   1,   1,  10,   357.418,    -1.846,     0.000,     0.000,     0.000,     0.000,   1,    1,  0,     0.000,     0.000,   0
  1101,'1 ',   1,   1,   3,  1589.872,    47.649,     0.000,     0.000,     0.000,     0.000,   1,    1,  0,     0.000,     0.000,   0
  1102,'1 ',   1,   1,   3,    63.798,    -8.479,     0.000,     0.000,     0.000,     0.000,   1,    1,  0,     0.000,     0.000,   0
  1201,'1 ',   1,   1,   3,    54.615,     0.607,     0.000,     0.000,     0.000,     0.000,   1,    1,  0,     0.000,     0.000,   0
  1202,'1 ',   1,   1,   3,   287.558,   -87.311,     0.000,     0.000,     0.000,     0.000,   1,    1,  0,     0.000,     0.000,   0
  1301,'1 ',   1,   1,   3,   918.023,  -114.595,     0.000,     0.000,     0.000,     0.000,   1,    1,  0,     0.000,     0.000,   0
  1302,'1 ',   1,   1,   9,     6.061,    -0.774,     0.000,     0.000,     0.000,     0.000,   1,    1,  0,     0.000,     0.000,   0
  1303,'1 ',   1,   1,   9,  2200.482,  -285.616,     0.000,     0.000,     0.000,     0.000,   1,    1,  0,     0.000,     0.000,   0
  1401,'1 ',   1,   1,   3,  2239.644,  -504.791,     0.000,     0.000,     0.000,     0.000,   1,    1,  0,     0.000,     0.000,   0
  1402,'1 ',   1,   1,   3,  1799.723,   190.300,     0.000,     0.000,     0.000,     0.000,   1,    1,  0,     0.000,     0.000,   0
  2000,'1 ',   1,   4,   7,   901.000,  -117.531,     0.000,     0.000,     0.000,     0.000,   1,    1,  0,     0.000,     0.000,   0
  2100,'1 ',   1,   2,   2,   213.526,   -40.233,     0.000,     0.000,     0.000,     0.000,   1,    1,  0,     0.000,     0.000,   0
  2202,'1 ',   1,   2,   2,   796.658,  -140.645,     0.000,     0.000,     0.000,     0.000,   1,    1,  0,     0.000,     0.000,   0
  2203,'1 ',   1,   2,   2,   862.066,  -139.707,     0.000,     0.000,     0.000,     0.000,   1,    1,  0,     0.000,     0.000,   0
  2400,'1 ',   1,   2,   2,   465.445,   -41.346,     0.000,     0.000,     0.000,     0.000,   1,    1,  0,     0.000,     0.000,   0
  2401,'1 ',   1,   2,   2,   474.829,   -53.940,     0.000,     0.000,     0.000,     0.000,   1,    1,  0,     0.000,     0.000,   0
  2402,'1 ',   1,   2,   2,   592.587,   -43.692,     0.000,     0.000,     0.000,     0.000,   1,    1,  0,     0.000,     0.000,   0
  2403,'1 ',   1,   2,   2,   580.491,   -20.855,     0.000,     0.000,     0.000,     0.000,   1,    1,  0,     0.000,     0.000,   0
  2405,'1 ',   1,   2,   2,   460.878,   -12.662,     0.000,     0.000,     0.000,     0.000,   1,    1,  0,     0.000,     0.000,   0
  2406,'1 ',   1,   2,   2,   413.735,    22.711,     0.000,     0.000,     0.000,     0.000,   1,    1,  0,     0.000,     0.000,   0
  2407,'1 ',   1,   2,   2,  1010.726,    22.007,     0.000,     0.000,     0.000,     0.000,   1,    1,  0,     0.000,     0.000,   0
  2408,'1 ',   1,   2,   2,   975.917,    40.293,     0.000,     0.000,     0.000,     0.000,   1,    1,  0,     0.000,     0.000,   0
  2409,'1 ',   1,   2,   2,   887.033,    47.070,     0.000,     0.000,     0.000,     0.000,   1,    1,  0,     0.000,     0.000,   0
  2410,'1 ',   1,   2,   2,   885.854,   -32.512,     0.000,     0.000,     0.000,     0.000,   1,    1,  0,     0.000,     0.000,   0
  2411,'1 ',   1,   2,   2,   602.177,   -41.220,     0.000,     0.000,     0.000,     0.000,   1,    1,  0,     0.000,     0.000,   0
  2502,'1 ',   1,   2,   2,  1097.590,    41.692,     0.000,     0.000,     0.000,     0.000,   1,    1,  0,     0.000,     0.000,   0
  2503,'1 ',   1,   2,   2,   865.581,   -93.872,     0.000,     0.000,     0.000,     0.000,   1,    1,  0,     0.000,     0.000,   0
  2600,'1 ',   1,   2,   2,  -874.005,     0.000,     0.000,     0.000,     0.000,     0.000,   1,    1,  0,     0.000,     0.000,   0
  2602,'1 ',   1,   2,   2,    67.706,    -8.655,     0.000,     0.000,     0.000,     0.000,   1,    1,  0,     0.000,     0.000,   0
  2604,'1 ',   1,   2,   2,   984.244,     0.000,     0.000,     0.000,     0.000,     0.000,   1,    1,  0,     0.000,     0.000,   0
  2608,'1 ',   1,   2,   2,    68.092,    -8.754,     0.000,     0.000,     0.000,     0.000,   1,    1,  0,     0.000,     0.000,   0
  2609,'1 ',   1,   2,   2,    93.432,   -18.712,     0.000,     0.000,     0.000,     0.000,   1,    1,  0,     0.000,     0.000,   0
  2610,'1 ',   1,   2,   2,    68.837,    -8.947,     0.000,     0.000,     0.000,     0.000,   1,    1,  0,     0.000,     0.000,   0
  2611,'1 ',   1,   2,   2,    68.092,    -8.754,     0.000,     0.000,     0.000,     0.000,   1,    1,  0,     0.000,     0.000,   0
  2612,'1 ',   1,   2,   2,    82.508,   -16.818,     0.000,     0.000,     0.000,     0.000,   1,    1,  0,     0.000,     0.000,   0
  2613,'1 ',   1,   2,   2,   222.557,   -45.492,     0.000,     0.000,     0.000,     0.000,   1,    1,  0,     0.000,     0.000,   0
  2614,'1 ',   1,   2,   2,    95.259,   -19.304,     0.000,     0.000,     0.000,     0.000,   1,    1,  0,     0.000,     0.000,   0
  2615,'1 ',   1,   2,   2,   555.884,   -90.511,     0.000,     0.000,     0.000,     0.000,   1,    1,  0,     0.000,     0.000,   0
  2616,'1 ',   1,   2,   2,    81.210,   -16.730,     0.000,     0.000,     0.000,     0.000,   1,    1,  0,     0.000,     0.000,   0
  2617,'1 ',   1,   2,   2,    83.904,   -17.392,     0.000,     0.000,     0.000,     0.000,   1,    1,  0,     0.000,     0.000,   0
  2618,'1 ',   1,   2,   2,   606.975,     4.194,     0.000,     0.000,     0.000,     0.000,   1,    1,  0,     0.000,     0.000,   0
  2619,'1 ',   1,   2,   2, -1354.510,     0.000,     0.000,     0.000,     0.000,     0.000,   1,    1,  0,     0.000,     0.000,   0
  2620,'1 ',   1,   2,   2,   140.590,   -11.954,     0.000,     0.000,     0.000,     0.000,   1,    1,  0,     0.000,     0.000,   0
  2621,'1 ',   1,   2,   2,   161.984,    42.645,     0.000,     0.000,     0.000,     0.000,   1,    1,  0,     0.000,     0.000,   0
  3101,'1 ',   1,   2,   2,   209.575,   -33.115,     0.000,     0.000,     0.000,     0.000,   1,    1,  0,     0.000,     0.000,   0
  3102,'1 ',   1,   2,   2,    97.392,   -15.459,     0.000,     0.000,     0.000,     0.000,   1,    1,  0,     0.000,     0.000,   0
  3103,'1 ',   1,   2,   2,   265.083,   -38.040,     0.000,     0.000,     0.000,     0.000,   1,    1,  0,     0.000,     0.000,   0
  3104,'1 ',   1,   2,   2,   189.480,   -24.931,     0.000,     0.000,     0.000,     0.000,   1,    1,  0,     0.000,     0.000,   0
  3105,'1 ',   1,   2,   2,   143.940,   -29.528,     0.000,     0.000,     0.000,     0.000,   1,    1,  0,     0.000,     0.000,   0
  3201,'1 ',   1,   2,   2,   290.696,   -61.644,     0.000,     0.000,     0.000,     0.000,   1,    1,  0,     0.000,     0.000,   0
  3202,'1 ',   1,   2,   2,   368.577,   -52.624,     0.000,     0.000,     0.000,     0.000,   1,    1,  0,     0.000,     0.000,   0
  3203,'1 ',   1,   2,   2,   412.895,   -99.773,     0.000,     0.000,     0.000,     0.000,   1,    1,  0,     0.000,     0.000,   0
  3204,'1 ',   1,   2,   2,   415.269,   -58.597,     0.000,     0.000,     0.000,     0.000,   1,    1,  0,     0.000,     0.000,   0
  3205,'1 ',   1,   2,   2,   342.975,   -48.928,     0.000,     0.000,     0.000,     0.000,   1,    1,  0,     0.000,     0.000,   0
  3302,'1 ',   1,   2,   2,   220.458,   -55.753,     0.000,     0.000,     0.000,     0.000,   1,    1,  0,     0.000,     0.000,   0
  3303,'1 ',   1,   2,   2,   392.219,   -94.519,     0.000,     0.000,     0.000,     0.000,   1,    1,  0,     0.000,     0.000,   0
  3304,'1 ',   1,   2,   2,   338.499,   -78.715,     0.000,     0.000,     0.000,     0.000,   1,    1,  0,     0.000,     0.000,   0
  3305,'1 ',   1,   2,   2,   271.543,   -38.874,     0.000,     0.000,     0.000,     0.000,   1,    1,  0,     0.000,     0.000,   0
  3401,'1 ',   1,   2,   2,   244.681,   -62.160,     0.000,     0.000,     0.000,     0.000,   1,    1,  0,     0.000,     0.000,   0
  3403,'1 ',   1,   2,   2,   217.145,   -30.967,     0.000,     0.000,     0.000,     0.000,   1,    1,  0,     0.000,     0.000,   0
  3404,'1 ',   1,   2,   2,   187.217,   -26.892,     0.000,     0.000,     0.000,     0.000,   1,    1,  0,     0.000,     0.000,   0
  3405,'1 ',   1,   2,   2,   197.811,   -29.402,     0.000,     0.000,     0.000,     0.000,   1,    1,  0,     0.000,     0.000,   0
  3501,'1 ',   1,   2,   2,   334.400,   -47.625,     0.000,     0.000,     0.000,     0.000,   1,    1,  0,     0.000,     0.000,   0
  3601,'1 ',   1,   2,   2,    80.394,   -11.213,     0.000,     0.000,     0.000,     0.000,   1,    1,  0,     0.000,     0.000,   0
  3701,'1 ',   1,   1,   9,   167.900,    -8.392,     0.000,     0.000,     0.000,     0.000,   1,    1,  0,     0.000,     0.000,   0
  3801,'1 ',   1,   2,   2,   134.268,   -31.735,     0.000,     0.000,     0.000,     0.000,   1,    1,  0,     0.000,     0.000,   0
  3804,'1 ',   1,   2,   2,   165.173,   -40.968,     0.000,     0.000,     0.000,     0.000,   1,    1,  0,     0.000,     0.000,   0
  3805,'1 ',   1,   2,   2,   355.391,  -112.149,     0.000,     0.000,     0.000,     0.000,   1,    1,  0,     0.000,     0.000,   0
  3806,'1 ',   1,   2,   2,   209.320,   -29.343,     0.000,     0.000,     0.000,     0.000,   1,    1,  0,     0.000,     0.000,   0
  3902,'1 ',   1,   2,   2,    72.037,   -18.009,     0.000,     0.000,     0.000,     0.000,   1,    1,  0,     0.000,     0.000,   0
  3903,'1 ',   1,   2,   2,    99.793,   -14.078,     0.000,     0.000,     0.000,     0.000,   1,    1,  0,     0.000,     0.000,   0
  3907,'1 ',   1,   2,   2,   225.163,   -31.905,     0.000,     0.000,     0.000,     0.000,   1,    1,  0,     0.000,     0.000,   0
  3908,'1 ',   1,   2,   2,    97.765,   -12.508,     0.000,     0.000,     0.000,     0.000,   1,    1,  0,     0.000,     0.000,   0
  3909,'1 ',   1,   2,   2,    83.387,   -20.103,     0.000,     0.000,     0.000,     0.000,   1,    1,  0,     0.000,     0.000,   0
  3910,'1 ',   1,   2,   2,   119.512,   -17.863,     0.000,     0.000,     0.000,     0.000,   1,    1,  0,     0.000,     0.000,   0
  3911,'1 ',   1,   2,   2,   106.919,   -21.046,     0.000,     0.000,     0.000,     0.000,   1,    1,  0,     0.000,     0.000,   0
  3912,'1 ',   1,   2,   2,    82.096,     0.298,     0.000,     0.000,     0.000,     0.000,   1,    1,  0,     0.000,     0.000,   0
  3913,'1 ',   1,   2,   2,   157.477,   -21.064,     0.000,     0.000,     0.000,     0.000,   1,    1,  0,     0.000,     0.000,   0
  3914,'1 ',   1,   2,   2,   108.425,   -25.293,     0.000,     0.000,     0.000,     0.000,   1,    1,  0,     0.000,     0.000,   0
  3915,'1 ',   1,   2,   2,   120.774,   -25.550,     0.000,     0.000,     0.000,     0.000,   1,    1,  0,     0.000,     0.000,   0
  3916,'1 ',   1,   2,   2,    73.121,     0.000,     0.000,     0.000,     0.000,     0.000,   1,    1,  0,     0.000,     0.000,   0
  3917,'1 ',   1,   2,   2,   112.041,   -20.674,     0.000,     0.000,     0.000,     0.000,   1,    1,  0,     0.000,     0.000,   0
  3918,'1 ',   1,   2,   2,   151.482,   -36.076,     0.000,     0.000,     0.000,     0.000,   1,    1,  0,     0.000,     0.000,   0
  3919,'1 ',   1,   2,   2,    89.813,   -12.125,     0.000,     0.000,     0.000,     0.000,   1,    1,  0,     0.000,     0.000,   0
  3920,'1 ',   1,   2,   2,    83.094,   -11.668,     0.000,     0.000,     0.000,     0.000,   1,    1,  0,     0.000,     0.000,   0
  3921,'1 ',   1,   2,   2,    66.400,   -14.321,     0.000,     0.000,     0.000,     0.000,   1,    1,  0,     0.000,     0.000,   0
  3922,'1 ',   1,   2,   2,   121.279,   -15.523,     0.000,     0.000,     0.000,     0.000,   1,    1,  0,     0.000,     0.000,   0
  3923,'1 ',   1,   2,   2,   184.916,   -30.563,     0.000,     0.000,     0.000,     0.000,   1,    1,  0,     0.000,     0.000,   0
  3924,'1 ',   1,   2,   2,   157.029,   -22.343,     0.000,     0.000,     0.000,     0.000,   1,    1,  0,     0.000,     0.000,   0
  3926,'1 ',   1,   2,   2,   127.766,    -8.085,     0.000,     0.000,     0.000,     0.000,   1,    1,  0,     0.000,     0.000,   0
  4002,'1 ',   1,   3,  11,   107.097,   -12.792,     0.000,     0.000,     0.000,     0.000,   1,    1,  0,     0.000,     0.000,   0
  4004,'1 ',   1,   3,  11,   172.029,   -20.603,     0.000,     0.000,     0.000,     0.000,   1,    1,  0,     0.000,     0.000,   0
  4005,'1 ',   1,   3,  11,   308.145,   -93.550,     0.000,     0.000,     0.000,     0.000,   1,    1,  0,     0.000,     0.000,   0
  4008,'1 ',   1,   3,  11,   183.762,   -22.288,     0.000,     0.000,     0.000,     0.000,   1,    1,  0,     0.000,     0.000,   0
  4009,'1 ',   1,   3,  11,  1417.605,  -256.367,     0.000,     0.000,     0.000,     0.000,   1,    1,  0,     0.000,     0.000,   0
  4010,'1 ',   1,   3,  11,  1435.583,     0.000,     0.000,     0.000,     0.000,     0.000,   1,    1,  0,     0.000,     0.000,   0
  4101,'1 ',   1,   3,  13,   611.449,   -70.703,     0.000,     0.000,     0.000,     0.000,   1,    1,  0,     0.000,     0.000,   0
  4102,'1 ',   1,   3,  13,   303.984,   -39.622,     0.000,     0.000,     0.000,     0.000,   1,    1,  0,     0.000,     0.000,   0
  4103,'1 ',   1,   3,  13,     7.490,    -0.903,     0.000,     0.000,     0.000,     0.000,   1,    1,  0,     0.000,     0.000,   0
  4104,'1 ',   1,   3,  13,  1680.905,  -210.353,     0.000,     0.000,     0.000,     0.000,   1,    1,  0,     0.000,     0.000,   0
  4201,'1 ',   1,   3,  13,  3566.473,  -254.748,     0.000,     0.000,     0.000,     0.000,   1,    1,  0,     0.000,     0.000,   0
  4202,'1 ',   1,   3,  13,  2980.748,  -366.831,     0.000,     0.000,     0.000,     0.000,   1,    1,  0,     0.000,     0.000,   0
  4203,'1 ',   1,   3,  13,  2986.434,  -383.253,     0.000,     0.000,     0.000,     0.000,   1,    1,  0,     0.000,     0.000,   0
  4204,'1 ',   1,   3,  13,   658.246,   -80.373,     0.000,     0.000,     0.000,     0.000,   1,    1,  0,     0.000,     0.000,   0
  5001,'1 ',   1,   3,   4,  5085.333, -1100.721,     0.000,     0.000,     0.000,     0.000,   1,    1,  0,     0.000,     0.000,   0
  5002,'1 ',   1,   3,   1,  6347.681,  -784.746,     0.000,     0.000,     0.000,     0.000,   1,    1,  0,     0.000,     0.000,   0
  5003,'1 ',   1,   3,   1,   415.422,   -51.904,     0.000,     0.000,     0.000,     0.000,   1,    1,  0,     0.000,     0.000,   0
  6102,'1 ',   1,   3,   6,   382.613,   121.788,     0.000,     0.000,     0.000,     0.000,   1,    1,  0,     0.000,     0.000,   0
  6103,'1 ',   1,   3,   6,   144.613,   -18.599,     0.000,     0.000,     0.000,     0.000,   1,    1,  0,     0.000,     0.000,   0
  6104,'1 ',   1,   3,   6,   630.030,   -81.631,     0.000,     0.000,     0.000,     0.000,   1,    1,  0,     0.000,     0.000,   0
  6201,'1 ',   1,   3,   8,    70.689,    -8.702,     0.000,     0.000,     0.000,     0.000,   1,    1,  0,     0.000,     0.000,   0
  6202,'1 ',   1,   3,   8,    29.605,    -4.137,     0.000,     0.000,     0.000,     0.000,   1,    1,  0,     0.000,     0.000,   0
  6203,'1 ',   1,   3,   8,   221.799,   -52.288,     0.000,     0.000,     0.000,     0.000,   1,    1,  0,     0.000,     0.000,   0
  6204,'1 ',   1,   3,   8,   243.026,   -51.906,     0.000,     0.000,     0.000,     0.000,   1,    1,  0,     0.000,     0.000,   0
  6205,'1 ',   1,   3,   8,   169.644,   -28.512,     0.000,     0.000,     0.000,     0.000,   1,    1,  0,     0.000,     0.000,   0
  6301,'1 ',   1,   3,  14,   185.177,   -23.795,     0.000,     0.000,     0.000,     0.000,   1,    1,  0,     0.000,     0.000,   0
  6302,'1 ',   1,   3,  14,   214.217,   -27.790,     0.000,     0.000,     0.000,     0.000,   1,    1,  0,     0.000,     0.000,   0
  6303,'1 ',   1,   3,  14,   263.888,   -33.425,     0.000,     0.000,     0.000,     0.000,   1,    1,  0,     0.000,     0.000,   0
  6305,'1 ',   1,   3,  14,    20.687,    -6.400,     0.000,     0.000,     0.000,     0.000,   1,    1,  0,     0.000,     0.000,   0
  6401,'1 ',   1,   1,   9,   791.095,  -100.478,     0.000,     0.000,     0.000,     0.000,   1,    1,  0,     0.000,     0.000,   0
  6402,'1 ',   1,   1,   9,   131.585,   -17.069,     0.000,     0.000,     0.000,     0.000,   1,    1,  0,     0.000,     0.000,   0
  6403,'1 ',   1,   1,   9,     0.962,    -0.107,     0.000,     0.000,     0.000,     0.000,   1,    1,  0,     0.000,     0.000,   0
  6404,'1 ',   1,   1,   9,    13.359,    -1.651,     0.000,     0.000,     0.000,     0.000,   1,    1,  0,     0.000,     0.000,   0
  6501,'1 ',   1,   3,  12,    70.275,   -22.750,     0.000,     0.000,     0.000,     0.000,   1,    1,  0,     0.000,     0.000,   0
  6502,'1 ',   1,   3,  12,   560.401,   -98.987,     0.000,     0.000,     0.000,     0.000,   1,    1,  0,     0.000,     0.000,   0
  6503,'1 ',   1,   3,  12,   150.802,   -46.414,     0.000,     0.000,     0.000,     0.000,   1,    1,  0,     0.000,     0.000,   0
  6504,'1 ',   1,   3,  12,   106.932,   -13.794,     0.000,     0.000,     0.000,     0.000,   1,    1,  0,     0.000,     0.000,   0
  6505,'1 ',   1,   3,  12,     2.386,    -0.756,     0.000,     0.000,     0.000,     0.000,   1,    1,  0,     0.000,     0.000,   0
  6507,'1 ',   1,   3,  12,   192.161,    21.280,     0.000,     0.000,     0.000,     0.000,   1,    1,  0,     0.000,     0.000,   0
  6508,'1 ',   1,   3,  12,    46.960,   -15.059,     0.000,     0.000,     0.000,     0.000,   1,    1,  0,     0.000,     0.000,   0
  6509,'1 ',   1,   3,  12,     3.093,    -1.002,     0.000,     0.000,     0.000,     0.000,   1,    1,  0,     0.000,     0.000,   0
  6510,'1 ',   1,   3,  12,   717.889,    40.734,     0.000,     0.000,     0.000,     0.000,   1,    1,  0,     0.000,     0.000,   0
  7001,'1 ',   1,   3,   5,  2498.751,  -270.260,     0.000,     0.000,     0.000,     0.000,   1,    1,  0,     0.000,     0.000,   0
  7002,'1 ',   1,   3,   5,   916.358,    48.790,     0.000,     0.000,     0.000,     0.000,   1,    1,  0,     0.000,     0.000,   0
  8003,'1 ',   1,   2,   2,   144.255,   -17.505,     0.000,     0.000,     0.000,     0.000,   1,    1,  0,     0.000,     0.000,   0
  8004,'1 ',   1,   2,   2,   900.001,  -117.400,     0.000,     0.000,     0.000,     0.000,   1,    1,  0,     0.000,     0.000,   0
  8005,'1 ',   1,   2,   2,   320.290,   -42.632,     0.000,     0.000,     0.000,     0.000,   1,    1,  0,     0.000,     0.000,   0
0 / END OF LOAD DATA, BEGIN FIXED SHUNT DATA
@!   I,'ID',STATUS,  GL,        BL
0 / END OF FIXED SHUNT DATA, BEGIN GENERATOR DATA
@!   I,'ID',      PG,        QG,        QT,        QB,     VS,    IREG,     MBASE,     ZR,         ZX,         RT,         XT,     GTAP,STAT, RMPCT,      PT,        PB,    O1,    F1,  O2,    F2,  O3,    F3,  O4,    F4,WMOD, WPF,NREG
  1032,'C ',   873.000,   200.000,   200.000,  -200.000,1.01400,  1002,   895.617, 0.00000E+0, 2.00000E-1, 0.00000E+0, 0.00000E+0,1.00000,1,  100.0,   873.000,     0.000,   1,1.0000
  1032,'G ',     0.000,   344.074,   357.000,  -357.000,1.01400,  1002,  1109.031, 0.00000E+0, 2.00000E-1, 0.00000E+0, 0.00000E+0,1.00000,0,  100.0,  1050.000,     0.000,   1,1.0000
  1032,'S ',     0.000,   209.017,   255.200,  -255.200,1.01400,  1002,   687.147, 0.00000E+0, 2.00000E-1, 0.00000E+0, 0.00000E+0,1.00000,0,  100.0,   638.000,     0.000,   1,1.0000,   0,   1.0,   0,   1.0,   0,   1.0, 1, 1.0000
  1034,'C ',  1944.000,   500.000,   500.000,  -500.000,1.03000,  1004,  2007.271, 0.00000E+0, 2.00000E-1, 0.00000E+0, 0.00000E+0,1.00000,1,  100.0,  1944.000,     0.000,   1,1.0000
  1034,'G ',     0.000,   168.193,   918.000,  -918.000,1.03000,  1004,  2851.793, 0.00000E+0, 2.00000E-1, 0.00000E+0, 0.00000E+0,1.00000,0,  100.0,  2700.000,     0.000,   1,1.0000
  1034,'W ',  1675.120,   672.800,   672.800,  -672.800,1.03000,  1004,  1811.569, 0.00000E+0, 2.00000E-1, 0.00000E+0, 0.00000E+0,1.00000,1,  100.0,  1682.000,     0.000,   1,1.0000,   0,   1.0,   0,   1.0,   0,   1.0, 1, 1.0000
  1131,'C ',  1268.000,   308.000,   308.000,  -308.000,1.01000,  1101,  1304.871, 0.00000E+0, 2.00000E-1, 0.00000E+0, 0.00000E+0,1.00000,1,  100.0,  1268.000,     0.000,   1,1.0000
  1131,'G ',     0.000,   121.365,  1916.000, -1916.000,1.01000,  1101,  5292.958, 0.00000E+0, 2.00000E-1, 0.00000E+0, 0.00000E+0,1.00000,0,  100.0,  4934.000,     0.000,   1,1.0000
  1232,'C ',  1455.665, -1208.000,  1208.000, -1208.000,1.08000,  1202,  5121.503, 0.00000E+0, 2.00000E-1, 0.00000E+0, 0.00000E+0,1.00000,1,  100.0,  4977.000,     0.000,   1,1.0000
  1232,'H ',   288.059,  -421.897,   479.600,  -479.600,1.08000,  1202,  1291.363, 0.00000E+0, 2.00000E-1, 0.00000E+0, 0.00000E+0,1.00000,1,  100.0,  1199.000,     0.000,   1,1.0000
  1331,'G ',     0.000,    37.119,   841.000,  -841.000,1.04500,  1301,  2324.472, 0.00000E+0, 2.00000E-1, 0.00000E+0, 0.00000E+0,1.00000,0,  100.0,  2167.000,     0.000,   1,1.0000
  1331,'H ',  1255.869,   931.200,   931.200,  -931.200,1.04500,  1301,  2507.333, 0.00000E+0, 2.00000E-1, 0.00000E+0, 0.00000E+0,1.00000,1,  100.0,  2328.000,     0.000,   1,1.0000
  1333,'C ',   418.000,  -167.200,   167.200,  -167.200,1.00500,  1303,   450.200, 0.00000E+0, 2.00000E-1, 0.00000E+0, 0.00000E+0,1.00000,1,  100.0,   418.000,     0.000,   1,1.0000
  1333,'G ',  1576.731, -1110.866,  2746.000, -2746.000,1.00500,  1303,  7529.584, 0.00000E+0, 2.00000E-1, 0.00000E+0, 0.00000E+0,1.00000,1,  100.0,  7011.000,     0.000,   1,1.0000
  1333,'S ',     0.000,   205.553,   969.200,  -969.200,1.00500,  1303,  2609.651, 0.00000E+0, 2.00000E-1, 0.00000E+0, 0.00000E+0,1.00000,0,  100.0,  2423.000,     0.000,   1,1.0000,   0,   1.0,   0,   1.0,   0,   1.0, 1, 1.0000
  1431,'G ',     0.000,   797.425,  3559.000, -3559.000,1.03500,  1401,  9836.432, 0.00000E+0, 2.00000E-1, 0.00000E+0, 0.00000E+0,1.00000,0,  100.0,  9170.000,     0.000,   1,1.0000
  1431,'N ',  3066.000, -1684.000,  1684.000, -1684.000,1.03500,  1401,  4534.309, 0.00000E+0, 2.00000E-1, 0.00000E+0, 0.00000E+0,1.00000,1,  100.0,  4210.000,     0.000,   1,1.0000
  1431,'S ',     0.000,   210.356,   967.600,  -967.600,1.03500,  1401,  2605.343, 0.00000E+0, 2.00000E-1, 0.00000E+0, 0.00000E+0,1.00000,0,  100.0,  2419.000,     0.000,   1,1.0000,   0,   1.0,   0,   1.0,   0,   1.0, 1, 1.0000
  2030,'E ',   520.000,  -279.600,   279.600,  -279.600,1.00000,  2000,   752.846, 0.00000E+0, 2.00000E-1, 0.00000E+0, 0.00000E+0,1.00000,1,  100.0,   699.000,     0.000,   1,1.0000
  2030,'G ',   195.893,  -856.000,   856.000,  -856.000,1.00000,  2000,  2304.851, 0.00000E+0, 2.00000E-1, 0.00000E+0, 0.00000E+0,1.00000,1,  100.0,  2140.000,     0.000,   1,1.0000
  2130,'E ',   407.000,   254.000,   254.000,  -254.000,1.03500,  2100,   868.952, 0.00000E+0, 2.00000E-1, 0.00000E+0, 0.00000E+0,1.00000,1,  100.0,   831.000,     0.000,   1,1.0000
  2130,'G ',     0.000,    54.601,   200.000,  -200.000,1.03500,  2100,   619.190, 0.00000E+0, 2.00000E-1, 0.00000E+0, 0.00000E+0,1.00000,0,  100.0,   586.000,     0.000,   1,1.0000
  2130,'H ',    91.034,   158.400,   158.400,  -158.400,1.03500,  2100,   426.505, 0.00000E+0, 2.00000E-1, 0.00000E+0, 0.00000E+0,1.00000,1,  100.0,   396.000,     0.000,   1,1.0000
  2130,'S ',     0.000,    10.677,    46.000,   -46.000,1.03500,  2100,   123.859, 0.00000E+0, 2.00000E-1, 0.00000E+0, 0.00000E+0,1.00000,0,  100.0,   115.000,     0.000,   1,1.0000,   0,   1.0,   0,   1.0,   0,   1.0, 1, 1.0000
  2233,'DG',     0.000,   136.789,   304.000,  -304.000,1.00500,  2203,  1078.722, 0.00000E+0, 2.00000E-1, 0.00000E+0, 0.00000E+0,1.00000,0,  100.0,  1035.000,     0.000,   1,1.0000
  2233,'EG',     0.000,   242.861,   611.000,  -611.000,1.00500,  2203,  1935.947, 0.00000E+0, 2.00000E-1, 0.00000E+0, 0.00000E+0,1.00000,0,  100.0,  1837.000,     0.000,   1,1.0000
  2233,'TG',     0.000,    96.952,   206.000,  -206.000,1.00500,  2203,   761.397, 0.00000E+0, 2.00000E-1, 0.00000E+0, 0.00000E+0,1.00000,0,  100.0,   733.000,     0.000,   1,1.0000
  2332,'S ',     0.000,   128.939,   533.200,  -533.200,1.03500,  2302,  1435.685, 0.00000E+0, 2.00000E-1, 0.00000E+0, 0.00000E+0,1.00000,0,  100.0,  1333.000,     0.000,   1,1.0000,   0,   1.0,   0,   1.0,   0,   1.0, 1, 1.0000
  2431,'S ',     0.000,   367.573,   666.400,  -666.400,1.05000,  2431,  1794.337, 0.00000E+0, 2.00000E-1, 0.00000E+0, 0.00000E+0,1.00000,0,  100.0,  1666.000,     0.000,   1,1.0000,   0,   1.0,   0,   1.0,   0,   1.0, 1, 1.0000
  2434,'S ',     0.000,  -213.713,   500.000,  -500.000,1.02000,  2434,  1570.707, 0.00000E+0, 2.00000E-1, 0.00000E+0, 0.00000E+0,1.00000,0,  100.0,  1489.000,     0.000,   1,1.0000,   0,   1.0,   0,   1.0,   0,   1.0, 1, 1.0000
  2438,'EG',   747.893,   650.988,   728.000,  -728.000,1.00900,  2408,  2404.838, 0.00000E+0, 2.00000E-1, 0.00000E+0, 0.00000E+0,1.00000,1,  100.0,  2292.000,     0.000,   1,1.0000
  2438,'ND',     0.000,     0.000,     0.500,    -0.500,1.00900,  2408,     0.500, 0.00000E+0, 2.00000E-1, 0.00000E+0, 0.00000E+0,1.00000,0,  100.0,     0.000, -1006.000,   1,1.0000
  2438,'RG',     0.000,    70.054,  1902.000, -1902.000,1.00900,  2408,  5773.301, 0.00000E+0, 2.00000E-1, 0.00000E+0, 0.00000E+0,1.00000,0,  100.0,  5451.000,     0.000,   1,1.0000
  2438,'S ',     0.000,    14.702,   458.400,  -458.400,1.00900,  2408,  1234.280, 0.00000E+0, 2.00000E-1, 0.00000E+0, 0.00000E+0,1.00000,0,  100.0,  1146.000,     0.000,   1,1.0000,   0,   1.0,   0,   1.0,   0,   1.0, 1, 1.0000
  2438,'SG',     0.000,    52.775,  1644.000, -1644.000,1.00900,  2408,  4426.605, 0.00000E+0, 2.00000E-1, 0.00000E+0, 0.00000E+0,1.00000,0,  100.0,  4110.000,     0.000,   1,1.0000
  2438,'SH',   566.267,   492.896,   584.000,  -584.000,1.00900,  2408,  1572.468, 0.00000E+0, 2.00000E-1, 0.00000E+0, 0.00000E+0,1.00000,1,  100.0,  1460.000,     0.000,   1,1.0000
  2438,'SW',   255.802,   222.658,   561.000,  -561.000,1.00900,  2408,  3258.653, 0.00000E+0, 2.00000E-1, 0.00000E+0, 0.00000E+0,1.00000,1,  100.0,  3210.000,     0.000,   1,1.0000,   0,   1.0,   0,   1.0,   0,   1.0, 1, 1.0000
  2438,'WG',     0.000,    74.740,  1910.000, -1910.000,1.00900,  2408,  6122.547, 0.00000E+0, 2.00000E-1, 0.00000E+0, 0.00000E+0,1.00000,0,  100.0,  5817.000,     0.000,   1,1.0000
  2439,'S ',     0.000,  -206.012,   666.400,  -666.400,1.02000,  2409,  1794.337, 0.00000E+0, 2.00000E-1, 0.00000E+0, 0.00000E+0,1.00000,0,  100.0,  1666.000,     0.000,   1,1.0000,   0,   1.0,   0,   1.0,   0,   1.0, 1, 1.0000
  2533,'S ',     0.000,   224.930,   799.600,  -799.600,1.00900,  2503,  2152.989, 0.00000E+0, 2.00000E-1, 0.00000E+0, 0.00000E+0,1.00000,0,  100.0,  1999.000,     0.000,   1,1.0000,   0,   1.0,   0,   1.0,   0,   1.0, 1, 1.0000
  2630,'G ',     0.000,   203.269,  1346.000, -1346.000,1.00400,  2610,  4170.195, 0.00000E+0, 2.00000E-1, 0.00000E+0, 0.00000E+0,1.00000,0,  100.0,  3947.000,     0.000,   1,1.0000
  2631,'S ',     0.000,    72.187,   208.000,  -208.000,1.01500,  2611,   560.057, 0.00000E+0, 2.00000E-1, 0.00000E+0, 0.00000E+0,1.00000,0,  100.0,   520.000,     0.000,   1,1.0000,   0,   1.0,   0,   1.0,   0,   1.0, 1, 1.0000
  2634,'C ',   323.600,  -647.200,   647.200,  -647.200,1.03000,  2604,  1742.639, 0.00000E+0, 2.00000E-1, 0.00000E+0, 0.00000E+0,1.00000,1,  100.0,  1618.000,     0.000,   1,1.0000
  2637,'H ',    19.938,    34.800,    34.800,   -34.800,1.03000,  2612,    93.702, 0.00000E+0, 2.00000E-1, 0.00000E+0, 0.00000E+0,1.00000,1,  100.0,    87.000,     0.000,   1,1.0000
  2638,'H ',    93.271,  -100.000,   100.000,  -100.000,1.01500,  2608,   419.105, 0.00000E+0, 2.00000E-1, 0.00000E+0, 0.00000E+0,1.00000,1,  100.0,   407.000,     0.000,   1,1.0000
  3133,'NG',     0.000,    24.800,    24.800,   -24.800,1.00000,  3103,    66.776, 0.00000E+0, 2.00000E-1, 0.00000E+0, 0.00000E+0,1.00000,0,  100.0,    62.000,     0.000,   1,1.0000
  3133,'SC',     0.000,     0.000,   500.000,  -500.000,1.00000,  3103,   500.000, 0.00000E+0, 2.00000E-1, 0.00000E+0, 0.00000E+0,1.00000,0,  100.0,     0.100,     0.000,   1,1.0000
  3135,'MG',    90.088,   209.348,   216.400,  -216.400,1.00000,  3105,   582.675, 0.00000E+0, 2.00000E-1, 0.00000E+0, 0.00000E+0,1.00000,1,  100.0,   541.000,     0.000,   1,1.0000
  3135,'NG',     0.000,     6.381,    15.200,   -15.200,1.00000,  3105,    40.927, 0.00000E+0, 2.00000E-1, 0.00000E+0, 0.00000E+0,1.00000,0,  100.0,    38.000,     0.000,   1,1.0000
  3234,'DG',     0.000,    15.032,    70.800,   -70.800,1.01000,  3204,   190.635, 0.00000E+0, 2.00000E-1, 0.00000E+0, 0.00000E+0,1.00000,0,  100.0,   177.000,     0.000,   1,1.0000
  3234,'MG',     0.000,   326.797,  1244.000, -1244.000,1.01000,  3204,  4048.845, 0.00000E+0, 2.00000E-1, 0.00000E+0, 0.00000E+0,1.00000,0,  100.0,  3853.000,     0.000,   1,1.0000
  3234,'NG',     0.000,    87.878,   382.000,  -382.000,1.01000,  3204,  1105.121, 0.00000E+0, 2.00000E-1, 0.00000E+0, 0.00000E+0,1.00000,0,  100.0,  1037.000,     0.000,   1,1.0000
  3234,'NW',  1304.365,   149.718,   150.000,  -150.000,1.01000,  3204,  1746.453, 0.00000E+0, 2.00000E-1, 0.00000E+0, 0.00000E+0,1.00000,1,  100.0,  1740.000,     0.000,   1,1.0000,   0,   1.0,   0,   1.0,   0,   1.0, 1, 1.0000
  3333,'CG',     0.000,   322.817,   398.000,  -398.000,1.00000,  3303,  1087.450, 0.00000E+0, 2.00000E-1, 0.00000E+0, 0.00000E+0,1.00000,0,  100.0,  1012.000,     0.000,   1,1.0000
  3333,'NG',     0.000,    99.448,   124.800,  -124.800,1.00000,  3303,   336.034, 0.00000E+0, 2.00000E-1, 0.00000E+0, 0.00000E+0,1.00000,0,  100.0,   312.000,     0.000,   1,1.0000
  3432,'NP',     0.000,     0.000,  1498.400, -1498.400,1.00000,  3402,  4034.565, 0.00000E+0, 2.00000E-1, 0.00000E+0, 0.00000E+0,1.00000,0,  100.0,  3746.000, -2841.000,   1,1.0000
  3433,'NG',     0.000,    33.395,   231.000,  -231.000,1.00000,  3403,   949.527, 0.00000E+0, 2.00000E-1, 0.00000E+0, 0.00000E+0,1.00000,0,  100.0,   921.000,     0.000,   1,1.0000
  3433,'S ',     0.000,    51.724,   570.400,  -570.400,1.00000,  3403,  1535.849, 0.00000E+0, 2.00000E-1, 0.00000E+0, 0.00000E+0,1.00000,0,  100.0,  1426.000,     0.000,   1,1.0000,   0,   1.0,   0,   1.0,   0,   1.0, 1, 1.0000
  3531,'CE',  1385.554,    -6.070,   569.600,  -569.600,1.00000,  3501,  1533.695, 0.00000E+0, 2.00000E-1, 0.00000E+0, 0.00000E+0,1.00000,1,  100.0,  1424.000,     0.000,   1,1.0000
  3531,'NE',   533.000,    -2.335,   213.200,  -213.200,1.00000,  3501,   574.059, 0.00000E+0, 2.00000E-1, 0.00000E+0, 0.00000E+0,1.00000,1,  100.0,   533.000,     0.000,   1,1.0000
  3531,'NH',     4.683,    -0.021,     9.600,    -9.600,1.00000,  3501,    25.849, 0.00000E+0, 2.00000E-1, 0.00000E+0, 0.00000E+0,1.00000,1,  100.0,    24.000,     0.000,   1,1.0000
  3631,'NB',    93.645,   -20.000,    20.000,   -20.000,1.01500,  3601,    98.061, 0.00000E+0, 2.00000E-1, 0.00000E+0, 0.00000E+0,1.00000,1,  100.0,    96.000,     0.000,   1,1.0000
  3631,'NG',     0.000,   -11.445,    74.000,   -74.000,1.01500,  3601,   222.657, 0.00000E+0, 2.00000E-1, 0.00000E+0, 0.00000E+0,1.00000,0,  100.0,   210.000,     0.000,   1,1.0000
  3731,'NH',   115.839,   -97.200,    97.200,   -97.200,1.00000,  3701,   261.719, 0.00000E+0, 2.00000E-1, 0.00000E+0, 0.00000E+0,1.00000,1,  100.0,   243.000,     0.000,   1,1.0000
  3831,'NN',  2323.000,  -929.200,   929.200,  -929.200,1.04900,  3801,  2501.948, 0.00000E+0, 2.00000E-1, 0.00000E+0, 0.00000E+0,1.00000,1,  100.0,  2323.000,     0.000,   1,1.0000
  3835,'ND',     0.000,     0.000,     0.500,    -0.500,1.03500,  3805,     0.500, 0.00000E+0, 2.00000E-1, 0.00000E+0, 0.00000E+0,1.00000,0,  100.0,     0.000,  -510.000,   1,1.0000
  3835,'NG',     0.000,    82.527,   662.000,  -662.000,1.03500,  3805,  2130.462, 0.00000E+0, 2.00000E-1, 0.00000E+0, 0.00000E+0,1.00000,0,  100.0,  2025.000,     0.000,   1,1.0000
  3835,'S ',     0.000,    54.057,   500.000,  -500.000,1.03500,  3805,  1423.688, 0.00000E+0, 2.00000E-1, 0.00000E+0, 0.00000E+0,1.00000,0,  100.0,  1333.000,     0.000,   1,1.0000,   0,   1.0,   0,   1.0,   0,   1.0, 1, 1.0000
  3836,'DG',     0.000,    16.516,   476.000,  -476.000,1.01900,  3806,  1570.855, 0.00000E+0, 2.00000E-1, 0.00000E+0, 0.00000E+0,1.00000,0,  100.0,  1497.000,     0.000,   1,1.0000
  3931,'NB',   553.457,  -151.000,   151.000,  -151.000,1.07000,  3921,   586.762, 0.00000E+0, 2.00000E-1, 0.00000E+0, 0.00000E+0,1.00000,1,  100.0,   567.000,     0.000,   1,1.0000
  3931,'NH',   662.722,  -312.510,  1150.000, -1150.000,1.07000,  3921,  3096.470, 0.00000E+0, 2.00000E-1, 0.00000E+0, 0.00000E+0,1.00000,1,  100.0,  2875.000,     0.000,   1,1.0000
  3932,'S ',     0.000,   -47.754,   570.400,  -570.400,1.00000,  3902,  1535.849, 0.00000E+0, 2.00000E-1, 0.00000E+0, 0.00000E+0,1.00000,0,  100.0,  1426.000,     0.000,   1,1.0000,   0,   1.0,   0,   1.0,   0,   1.0, 1, 1.0000
  3933,'CG',     0.000,    86.032,   346.000,  -346.000,1.02000,  3933,   931.633, 0.00000E+0, 2.00000E-1, 0.00000E+0, 0.00000E+0,1.00000,0,  100.0,   865.000,     0.000,   1,1.0000
  3933,'NB',   336.691,   -77.000,    77.000,   -77.000,1.02000,  3933,   353.488, 0.00000E+0, 2.00000E-1, 0.00000E+0, 0.00000E+0,1.00000,1,  100.0,   345.000,     0.000,   1,1.0000
  3933,'ND',     0.000,     0.000,     0.500,    -0.500,1.02000,  3933,     0.500, 0.00000E+0, 2.00000E-1, 0.00000E+0, 0.00000E+0,1.00000,0,  100.0,     0.000,  -449.000,   1,1.0000
  3933,'NG',     0.000,   191.460,   500.000,  -500.000,1.02000,  3933,  1990.811, 0.00000E+0, 2.00000E-1, 0.00000E+0, 0.00000E+0,1.00000,0,  100.0,  1927.000,     0.000,   1,1.0000
  3933,'NH',  1284.369, -1089.600,  1089.600, -1089.600,1.02000,  3933,  2933.838, 0.00000E+0, 2.00000E-1, 0.00000E+0, 0.00000E+0,1.00000,1,  100.0,  2724.000,     0.000,   1,1.0000
  3933,'NW',     2.797,  -200.000,   200.000,  -200.000,1.02000,  3933,   766.551, 0.00000E+0, 2.00000E-1, 0.00000E+0, 0.00000E+0,1.00000,1,  100.0,   740.000,     0.000,   1,1.0000,   0,   1.0,   0,   1.0,   0,   1.0, 1, 1.0000
  3933,'S ',     0.000,   132.443,   533.200,  -533.200,1.02000,  3933,  1435.685, 0.00000E+0, 2.00000E-1, 0.00000E+0, 0.00000E+0,1.00000,0,  100.0,  1333.000,     0.000,   1,1.0000,   0,   1.0,   0,   1.0,   0,   1.0, 1, 1.0000
  4031,'G ',     0.000,   502.000,   502.000,  -502.000,1.08000,  4001,  2756.103, 0.00000E+0, 2.00000E-1, 0.00000E+0, 0.00000E+0,1.00000,0,  100.0,  2710.000,     0.000,   1,1.0000
  4031,'H ',   733.185,   380.800,   380.800,  -380.800,1.08000,  4001,  1025.335, 0.00000E+0, 2.00000E-1, 0.00000E+0, 0.00000E+0,1.00000,1,  100.0,   952.000,     0.000,   1,1.0000
  4031,'S ',     0.000,   109.387,   170.800,  -170.800,1.08000,  4001,   459.893, 0.00000E+0, 2.00000E-1, 0.00000E+0, 0.00000E+0,1.00000,0,  100.0,   427.000,     0.000,   1,1.0000,   0,   1.0,   0,   1.0,   0,   1.0, 1, 1.0000
  4031,'W ',    50.271,   240.000,   240.000,  -240.000,1.08000,  4001,   678.841, 0.00000E+0, 2.00000E-1, 0.00000E+0, 0.00000E+0,1.00000,1,  100.0,   635.000,     0.000,   1,1.0000,   0,   1.0,   0,   1.0,   0,   1.0, 1, 1.0000
  4035,'C ',   642.000,  -255.000,   255.000,  -255.000,1.08000,  4005,   690.789, 0.00000E+0, 2.00000E-1, 0.00000E+0, 0.00000E+0,1.00000,1,  100.0,   642.000,     0.000,   1,1.0000
  4035,'G ',     0.000,    19.364,   307.000,  -307.000,1.08000,  4005,  1684.216, 0.00000E+0, 2.00000E-1, 0.00000E+0, 0.00000E+0,1.00000,0,  100.0,  1656.000,     0.000,   1,1.0000
  4035,'H ',  2273.596,  -968.674,  1428.800, -1428.800,1.08000,  4005,  3847.162, 0.00000E+0, 2.00000E-1, 0.00000E+0, 0.00000E+0,1.00000,1,  100.0,  3572.000,     0.000,   1,1.0000
  4035,'W ',   167.636,   -71.422,   800.000,  -800.000,1.08000,  4005,  2699.275, 0.00000E+0, 2.00000E-1, 0.00000E+0, 0.00000E+0,1.00000,1,  100.0,  2578.000,     0.000,   1,1.0000,   0,   1.0,   0,   1.0,   0,   1.0, 1, 1.0000
  4039,'G ',     0.000,    31.097,    60.000,   -60.000,1.08000,  4009,   161.555, 0.00000E+0, 2.00000E-1, 0.00000E+0, 0.00000E+0,1.00000,0,  100.0,   150.000,     0.000,   1,1.0000
  4039,'H ',  1929.710,  -493.849,  1135.600, -1135.600,1.08000,  4009,  3057.697, 0.00000E+0, 2.00000E-1, 0.00000E+0, 0.00000E+0,1.00000,1,  100.0,  2839.000,     0.000,   1,1.0000
  4039,'W ',    22.716,    -5.813,   500.000,  -500.000,1.08000,  4009,  1383.510, 0.00000E+0, 2.00000E-1, 0.00000E+0, 0.00000E+0,1.00000,1,  100.0,  1290.000,     0.000,   1,1.0000,   0,   1.0,   0,   1.0,   0,   1.0, 1, 1.0000
  4131,'B ',   693.876,   -40.736,   150.000,  -150.000,1.12800,  4101,   726.651, 0.00000E+0, 2.00000E-1, 0.00000E+0, 0.00000E+0,1.00000,1,  100.0,   711.000,     0.000,   1,1.0000
  4131,'H ',  4242.083,  -249.046,  5045.200, -5045.200,1.12800,  4101, 13584.617, 0.00000E+0, 2.00000E-1, 0.00000E+0, 0.00000E+0,1.00000,1,  100.0, 12613.000,     0.000,   1,1.0000
  4131,'W ',    51.042,    -2.997,   120.000,  -120.000,1.12800,  4101,   799.062, 0.00000E+0, 2.00000E-1, 0.00000E+0, 0.00000E+0,1.00000,1,  100.0,   790.000,     0.000,   1,1.0000,   0,   1.0,   0,   1.0,   0,   1.0, 1, 1.0000
  4132,'G ',     0.000,   311.261,   868.000,  -868.000,1.09600,  4102,  2337.162, 0.00000E+0, 2.00000E-1, 0.00000E+0, 0.00000E+0,1.00000,0,  100.0,  2170.000,     0.000,   1,1.0000
  4132,'H ',  1273.758,  -211.592,  2215.600, -2215.600,1.09600,  4102,  5965.686, 0.00000E+0, 2.00000E-1, 0.00000E+0, 0.00000E+0,1.00000,1,  100.0,  5539.000,     0.000,   1,1.0000
  4132,'N ',  1200.000,  -199.340,   231.000,  -231.000,1.09600,  4102,  1222.031, 0.00000E+0, 2.00000E-1, 0.00000E+0, 0.00000E+0,1.00000,1,  100.0,  1200.000,     0.000,   1,1.0000
  4132,'W ',    59.828,    -9.938,   120.000,  -120.000,1.09600,  4102,   323.110, 0.00000E+0, 2.00000E-1, 0.00000E+0, 0.00000E+0,1.00000,1,  100.0,   300.000,     0.000,   1,1.0000,   0,   1.0,   0,   1.0,   0,   1.0, 1, 1.0000
  4231,'C ',   420.046,   176.851,   584.000,  -584.000,1.12000,  4201,  1572.468, 0.00000E+0, 2.00000E-1, 0.00000E+0, 0.00000E+0,1.00000,1,  100.0,  1460.000,     0.000,   1,1.0000
  4231,'G ',     0.000,   267.538,   388.000,  -388.000,1.12000,  4201,  1044.722, 0.00000E+0, 2.00000E-1, 0.00000E+0, 0.00000E+0,1.00000,0,  100.0,   970.000,     0.000,   1,1.0000
  4231,'H ',  1898.621,   799.372,  1406.800, -1406.800,1.12000,  4201,  3787.925, 0.00000E+0, 2.00000E-1, 0.00000E+0, 0.00000E+0,1.00000,1,  100.0,  3517.000,     0.000,   1,1.0000
...